&HEAD CHID='v3_20230820'/
&TIME T_END=200.0, DT=0.01, WALL_INCREMENT=1/
&DUMP DT_RESTART=5.0/

&MESH ID='Mesh01', IJK=82,82,49, XB=-0.305,1.745,-0.305,1.745,1.825,3.05/
&MESH ID='Mesh02', IJK=82,32,66, XB=-0.305,1.745,-0.305,0.495,0.175,1.825/
&MESH ID='Mesh03', IJK=82,20,66, XB=-0.305,1.745,1.245,1.745,0.175,1.825/
&MESH ID='Mesh04', IJK=25,30,66, XB=-0.305,0.32,0.495,1.245,0.175,1.825/
&MESH ID='Mesh05', IJK=27,30,66, XB=1.07,1.745,0.495,1.245,0.175,1.825/
&MESH ID='Mesh06', IJK=30,30,66, XB=0.32,1.07,0.495,1.245,0.175,1.825/

&RADI NUMBER_RADIATION_ANGLES=300/ 

&REAC ID='MMA', FUEL='MMA',SOOT_YIELD=0.018,HEAT_OF_COMBUSTION=2.41E+4/

&SPEC ID='MMA', FORMULA='C5O2H8', RADCAL_ID='MMA', RAMP_CP='MMA_SPECIFIC_HEAT_RAMP'/
&RAMP ID='MMA_SPECIFIC_HEAT_RAMP',T=113,F=1.5/ 
&RAMP ID='MMA_SPECIFIC_HEAT_RAMP',T=299,F=1.9/


&MATL ID='PMMA',
      SPECIFIC_HEAT_RAMP='maCFP_PMMA_SPECIFIC_HEAT_RAMP',
      CONDUCTIVITY_RAMP='maCFP_PMMA_CONDUCTIVITY_RAMP',
      DENSITY=1181.6,
      ABSORPTION_COEFFICIENT=2250.0,
      EMISSIVITY=0.96,
      HEAT_OF_COMBUSTION=2.41E+4,
      N_REACTIONS=1,
      HEAT_OF_REACTION=983.0,
      SPEC_ID(1,1)='MMA',
      NU_SPEC(1,1)=1.0,
      N_S=1.03,
      A=6.31E+8,
      E=1.332E+5,
 

&RAMP ID='maCFP_PMMA_CONDUCTIVITY_RAMP', T=19.9, F=0.17331/
&RAMP ID='maCFP_PMMA_CONDUCTIVITY_RAMP', T=24.9, F=0.17384/
&RAMP ID='maCFP_PMMA_CONDUCTIVITY_RAMP', T=29.8, F=0.17402/
&RAMP ID='maCFP_PMMA_CONDUCTIVITY_RAMP', T=34.7, F=0.17448/
&RAMP ID='maCFP_PMMA_CONDUCTIVITY_RAMP', T=39.6, F=0.17609/
&RAMP ID='maCFP_PMMA_CONDUCTIVITY_RAMP', T=44.6, F=0.17784/
&RAMP ID='maCFP_PMMA_CONDUCTIVITY_RAMP', T=49.5, F=0.17862/
&RAMP ID='maCFP_PMMA_CONDUCTIVITY_RAMP', T=54.4, F=0.17821/
&RAMP ID='maCFP_PMMA_CONDUCTIVITY_RAMP', T=59.3, F=0.17775/
&RAMP ID='maCFP_PMMA_CONDUCTIVITY_RAMP', T=64.2, F=0.1777/

&RAMP ID='maCFP_PMMA_SPECIFIC_HEAT_RAMP', T=35.0, F=1.8/
&RAMP ID='maCFP_PMMA_SPECIFIC_HEAT_RAMP', T=40.0, F=1.7/
&RAMP ID='maCFP_PMMA_SPECIFIC_HEAT_RAMP', T=100.0, F=1.6/
&RAMP ID='maCFP_PMMA_SPECIFIC_HEAT_RAMP', T=140.0, F=1.4/

&MATL ID='kaowool',
      SPECIFIC_HEAT=1.070,
      CONDUCTIVITY_RAMP='Kaowool_CONDUCTIVITY_RAMP',
      DENSITY=256.,
      EMISSIVITY=1/

&RAMP ID='Kaowool_CONDUCTIVITY_RAMP', T=25, F=0.03364/ taken from DBIs measurements of Morgan thermal ceramics
&RAMP ID='Kaowool_CONDUCTIVITY_RAMP', T=260, F=0.0576/
&RAMP ID='Kaowool_CONDUCTIVITY_RAMP', T=538, F=0.085/
&RAMP ID='Kaowool_CONDUCTIVITY_RAMP', T=816, F=0.125/
&RAMP ID='Kaowool_CONDUCTIVITY_RAMP', T=1093, F=0.183/


&MATL ID='Marinite',
      SPECIFIC_HEAT=1.26,
      CONDUCTIVITY=0.13,
      DENSITY=737.0/

&SURF ID='Exhaust',
      RGB=26,204,26,
      VOLUME_FLOW=0.56/

&SURF ID='BURNER',
      COLOR='RED',
      TMP_FRONT=100.0,
      MASS_FLUX=0.036214,
      SPEC_ID='MMA',
      RAMP_MF(1)='BURNER_RAMP_Q',
      RAMP_T='BURNER_RAMP_Q'/

&RAMP ID='BURNER_RAMP_Q', T=0.0, F=0.0/
&RAMP ID='BURNER_RAMP_Q', T=1.0, F=0.0495/
&RAMP ID='BURNER_RAMP_Q', T=2.0, F=0.231667/
&RAMP ID='BURNER_RAMP_Q', T=3.0, F=0.3606/
&RAMP ID='BURNER_RAMP_Q', T=4.0, F=0.494833/
&RAMP ID='BURNER_RAMP_Q', T=5.0, F=0.589867/
&RAMP ID='BURNER_RAMP_Q', T=6.0, F=0.652867/
&RAMP ID='BURNER_RAMP_Q', T=7.0, F=0.704933/
&RAMP ID='BURNER_RAMP_Q', T=8.0, F=0.770267/
&RAMP ID='BURNER_RAMP_Q', T=9.0, F=0.779767/
&RAMP ID='BURNER_RAMP_Q', T=10.0, F=0.844933/
&RAMP ID='BURNER_RAMP_Q', T=11.0, F=0.857867/
&RAMP ID='BURNER_RAMP_Q', T=12.0, F=0.887967/
&RAMP ID='BURNER_RAMP_Q', T=13.0, F=0.889033/
&RAMP ID='BURNER_RAMP_Q', T=14.0, F=0.927467/
&RAMP ID='BURNER_RAMP_Q', T=15.0, F=1.0/
&RAMP ID='BURNER_RAMP_Q', T=16.0, F=1.0/
&RAMP ID='BURNER_RAMP_Q', T=200.0, F=1.0/


&SURF ID='PMMA_1',
      RGB=153,204,255,
      MATL_ID(1,1)='PMMA',
      MATL_ID(2,1)='kaowool',
      MATL_MASS_FRACTION(1,1)=1.0,
      MATL_MASS_FRACTION(2,1)=1.0,
      STRETCH_FACTOR(1:2) = 1.0,1.0,
      THICKNESS(1:2)=5.8E-3,0.0127,
      HEAT_TRANSFER_COEFFICIENT=12.,
      CELL_SIZE_FACTOR=0.1/


&SURF ID='PMMA_2',
      RGB=153,204,255,
      MATL_ID(1,1)='kaowool',
      MATL_ID(2,1)='PMMA',
      MATL_MASS_FRACTION(1,1)=1.0,
      MATL_MASS_FRACTION(2,1)=1.0,
      STRETCH_FACTOR(1:2) = 1.0,1.0,
      THICKNESS(1:2)=0.0127,5.8E-3,
      HEAT_TRANSFER_COEFFICIENT=12.,
      CELL_SIZE_FACTOR=0.1/


&SURF ID='Marinite',
      RGB=146,202,166,
      BACKING='VOID',
      MATL_ID(1,1)='Marinite',
      MATL_MASS_FRACTION(1,1)=1.0,
      THICKNESS(1)=0.0127/


&OBST ID='Obstruction10', XB=0.645,0.67,0.595,0.62,0.36,0.4, SURF_IDS='BURNER','INERT','INERT'/ 
&OBST ID='Obstruction9', XB=0.62,0.645,0.595,0.645,0.36,0.4, SURF_IDS='BURNER','INERT','INERT'/ 
&OBST ID='Obstruction8', XB=0.595,0.62,0.595,0.67,0.36,0.4, SURF_IDS='BURNER','INERT','INERT'/ 
&OBST ID='Obstruction7', XB=0.57,0.595,0.595,0.695,0.36,0.4, SURF_IDS='BURNER','INERT','INERT'/ 
&OBST ID='Obstruction6', XB=0.545,0.57,0.595,0.72,0.36,0.4, SURF_IDS='BURNER','INERT','INERT'/ 
&OBST ID='Obstruction5', XB=0.52,0.545,0.595,0.745,0.36,0.4, SURF_IDS='BURNER','INERT','INERT'/ 
&OBST ID='Obstruction4', XB=0.495,0.52,0.595,0.77,0.36,0.4, SURF_IDS='BURNER','INERT','INERT'/ 
&OBST ID='Obstruction3', XB=0.47,0.495,0.595,0.795,0.36,0.4, SURF_IDS='BURNER','INERT','INERT'/ 
&OBST ID='Obstruction2', XB=0.445,0.47,0.595,0.82,0.36,0.4, SURF_IDS='BURNER','INERT','INERT'/ 
&OBST ID='Obstruction1', XB=0.42,0.445,0.595,0.845,0.36,0.4, SURF_IDS='BURNER','INERT','INERT'/ 

&OBST ID='PMMA', XB=0.34,0.84,0.52,0.545,0.36,1.82, SURF_ID6='PMMA_1','PMMA_2','Marinite','Marinite','Marinite','Marinite'/  

&OBST ID='Obstruction #2', XB=0.34,1.04,0.52,1.22,0.36,0.36, COLOR='GRAY 94', SURF_ID='INERT'/ 
&OBST ID='Obstruction1', XB=0.34,1.04,0.495,0.52,0.36,1.82, COLOR='GRAY 80', SURF_ID='Marinite'/ 
&OBST ID='Obstruction1', XB=0.32,0.345,0.52,1.22,0.36,1.82, COLOR='GRAY 80', SURF_ID='Marinite'/ 

&OBST ID='PMMA Board1', XB=0.345,0.37,0.52,1.02,0.36,1.82, SURF_ID6='Marinite','Marinite','PMMA_2','PMMA_1','Marinite','Marinite'/  

&OBST ID='Mesh Vent: Mesh5 [ZMAX]04', XB=0.62,0.82,0.595,0.82,2.975,3.0, RGB=102,102,255, SURF_IDS='INERT','INERT','Exhaust'/ 
&OBST ID='Obstruction #1', XB=1.72,1.72,-0.28,1.72,2.4,2.45, COLOR='GRAY 60', SURF_ID='INERT'/ 
&OBST ID='Obstruction1', XB=-0.28,1.72,-0.28,-0.28,2.4,2.45, COLOR='GRAY 60', SURF_ID='INERT'/ 
&OBST ID='Obstruction1', XB=-0.28,1.72,1.72,1.72,2.4,2.45, COLOR='GRAY 60', SURF_ID='INERT'/ 
&OBST ID='Obstruction #1', XB=-0.28,-0.28,-0.28,1.72,2.4,2.45, COLOR='GRAY 60', SURF_ID='INERT'/ 
&OBST ID='Obstruction1', XB=-0.205,1.645,-0.23,-0.23,2.45,2.5, COLOR='GRAY 60', SURF_ID='INERT'/ 
&OBST ID='Obstruction #1', XB=1.645,1.72,-0.28,1.72,2.45,2.45, COLOR='GRAY 60', SURF_ID='INERT'/ 
&OBST ID='Obstruction1', XB=-0.28,1.72,-0.28,-0.23,2.45,2.45, COLOR='GRAY 60', SURF_ID='INERT'/ 
&OBST ID='Obstruction1', XB=-0.205,1.645,-0.23,-0.155,2.5,2.5, COLOR='GRAY 60', SURF_ID='INERT'/ 
&OBST ID='Obstruction #1', XB=-0.28,-0.205,-0.28,1.72,2.45,2.45, COLOR='GRAY 60', SURF_ID='INERT'/ 
&OBST ID='Obstruction1', XB=-0.28,1.72,1.645,1.72,2.45,2.45, COLOR='GRAY 60', SURF_ID='INERT'/ 
&OBST ID='Obstruction1', XB=-0.13,1.57,-0.155,-0.08,2.55,2.55, COLOR='GRAY 60', SURF_ID='INERT'/ 
&OBST ID='Obstruction1', XB=-0.13,1.57,-0.155,-0.155,2.5,2.55, COLOR='GRAY 60', SURF_ID='INERT'/ 
&OBST ID='Obstruction1', XB=-0.055,1.495,-0.08,-5.0E-3,2.6,2.6, COLOR='GRAY 60', SURF_ID='INERT'/ 
&OBST ID='Obstruction1', XB=-0.055,1.495,-0.08,-0.08,2.55,2.6, COLOR='GRAY 60', SURF_ID='INERT'/ 
&OBST ID='Obstruction1', XB=0.02,1.42,-5.0E-3,0.07,2.65,2.65, COLOR='GRAY 60', SURF_ID='INERT'/ 
&OBST ID='Obstruction1', XB=0.02,1.42,-5.0E-3,-5.0E-3,2.6,2.65, COLOR='GRAY 60', SURF_ID='INERT'/ 
&OBST ID='Obstruction1', XB=0.095,1.345,0.07,0.145,2.7,2.7, COLOR='GRAY 60', SURF_ID='INERT'/ 
&OBST ID='Obstruction1', XB=0.095,1.345,0.07,0.07,2.65,2.7, COLOR='GRAY 60', SURF_ID='INERT'/ 
&OBST ID='Obstruction1', XB=0.17,1.27,0.145,0.22,2.75,2.75, COLOR='GRAY 60', SURF_ID='INERT'/ 
&OBST ID='Obstruction1', XB=0.17,1.27,0.145,0.145,2.7,2.75, COLOR='GRAY 60', SURF_ID='INERT'/ 
&OBST ID='Obstruction1', XB=0.245,1.195,0.22,0.295,2.8,2.8, COLOR='GRAY 60', SURF_ID='INERT'/ 
&OBST ID='Obstruction1', XB=0.245,1.195,0.22,0.22,2.75,2.8, COLOR='GRAY 60', SURF_ID='INERT'/ 
&OBST ID='Obstruction1', XB=0.32,1.12,0.295,0.37,2.85,2.85, COLOR='GRAY 60', SURF_ID='INERT'/ 
&OBST ID='Obstruction1', XB=0.32,1.12,0.295,0.295,2.8,2.85, COLOR='GRAY 60', SURF_ID='INERT'/ 
&OBST ID='Obstruction1', XB=0.395,1.045,0.37,0.445,2.9,2.9, COLOR='GRAY 60', SURF_ID='INERT'/ 
&OBST ID='Obstruction1', XB=0.395,1.045,0.37,0.37,2.85,2.9, COLOR='GRAY 60', SURF_ID='INERT'/ 
&OBST ID='Obstruction1', XB=0.47,0.97,0.445,0.52,2.95,2.95, COLOR='GRAY 60', SURF_ID='INERT'/ 
&OBST ID='Obstruction1', XB=0.47,0.97,0.445,0.445,2.9,2.95, COLOR='GRAY 60', SURF_ID='INERT'/ 
&OBST ID='Obstruction1', XB=0.545,0.895,0.52,0.595,3.0,3.0, COLOR='GRAY 60', SURF_ID='INERT'/ 
&OBST ID='Obstruction1', XB=0.545,0.895,0.52,0.52,2.95,3.0, COLOR='GRAY 60', SURF_ID='INERT'/ 
&OBST ID='Obstruction1', XB=0.62,0.82,0.595,0.595,3.0,3.05, COLOR='GRAY 60', SURF_ID='INERT'/ 
&OBST ID='Obstruction #1', XB=-0.205,-0.205,-0.23,1.645,2.45,2.5, COLOR='GRAY 60', SURF_ID='INERT'/ 
&OBST ID='Obstruction #1', XB=-0.205,-0.13,-0.23,1.645,2.5,2.5, COLOR='GRAY 60', SURF_ID='INERT'/ 
&OBST ID='Obstruction #1', XB=-0.13,-0.13,-0.155,1.57,2.5,2.55, COLOR='GRAY 60', SURF_ID='INERT'/ 
&OBST ID='Obstruction #1', XB=-0.13,-0.055,-0.155,1.57,2.55,2.55, COLOR='GRAY 60', SURF_ID='INERT'/ 
&OBST ID='Obstruction #1', XB=-0.055,-0.055,-0.08,1.495,2.55,2.6, COLOR='GRAY 60', SURF_ID='INERT'/ 
&OBST ID='Obstruction #1', XB=-0.055,0.02,-0.08,1.495,2.6,2.6, COLOR='GRAY 60', SURF_ID='INERT'/ 
&OBST ID='Obstruction #1', XB=0.02,0.02,-5.0E-3,1.42,2.6,2.65, COLOR='GRAY 60', SURF_ID='INERT'/ 
&OBST ID='Obstruction #1', XB=0.02,0.095,-5.0E-3,1.42,2.65,2.65, COLOR='GRAY 60', SURF_ID='INERT'/ 
&OBST ID='Obstruction #1', XB=0.095,0.095,0.07,1.345,2.65,2.7, COLOR='GRAY 60', SURF_ID='INERT'/ 
&OBST ID='Obstruction #1', XB=0.095,0.17,0.07,1.345,2.7,2.7, COLOR='GRAY 60', SURF_ID='INERT'/ 
&OBST ID='Obstruction #1', XB=0.17,0.17,0.145,1.27,2.7,2.75, COLOR='GRAY 60', SURF_ID='INERT'/ 
&OBST ID='Obstruction #1', XB=0.17,0.245,0.145,1.27,2.75,2.75, COLOR='GRAY 60', SURF_ID='INERT'/ 
&OBST ID='Obstruction #1', XB=0.245,0.245,0.22,1.195,2.75,2.8, COLOR='GRAY 60', SURF_ID='INERT'/ 
&OBST ID='Obstruction #1', XB=0.245,0.32,0.22,1.195,2.8,2.8, COLOR='GRAY 60', SURF_ID='INERT'/ 
&OBST ID='Obstruction #1', XB=0.32,0.32,0.295,1.12,2.8,2.85, COLOR='GRAY 60', SURF_ID='INERT'/ 
&OBST ID='Obstruction #1', XB=0.32,0.395,0.295,1.12,2.85,2.85, COLOR='GRAY 60', SURF_ID='INERT'/ 
&OBST ID='Obstruction #1', XB=0.395,0.395,0.37,1.045,2.85,2.9, COLOR='GRAY 60', SURF_ID='INERT'/ 
&OBST ID='Obstruction #1', XB=0.395,0.47,0.37,1.045,2.9,2.9, COLOR='GRAY 60', SURF_ID='INERT'/ 
&OBST ID='Obstruction #1', XB=0.47,0.47,0.445,0.97,2.9,2.95, COLOR='GRAY 60', SURF_ID='INERT'/ 
&OBST ID='Obstruction #1', XB=0.47,0.545,0.445,0.97,2.95,2.95, COLOR='GRAY 60', SURF_ID='INERT'/ 
&OBST ID='Obstruction #1', XB=0.545,0.545,0.52,0.895,2.95,3.0, COLOR='GRAY 60', SURF_ID='INERT'/ 
&OBST ID='Obstruction #1', XB=0.545,0.62,0.52,0.895,3.0,3.0, COLOR='GRAY 60', SURF_ID='INERT'/ 
&OBST ID='Obstruction1', XB=-0.205,1.645,1.57,1.645,2.5,2.5, COLOR='GRAY 60', SURF_ID='INERT'/ 
&OBST ID='Obstruction1', XB=-0.205,1.645,1.645,1.645,2.45,2.5, COLOR='GRAY 60', SURF_ID='INERT'/ 
&OBST ID='Obstruction1', XB=-0.13,1.57,1.495,1.57,2.55,2.55, COLOR='GRAY 60', SURF_ID='INERT'/ 
&OBST ID='Obstruction1', XB=-0.13,1.57,1.57,1.57,2.5,2.55, COLOR='GRAY 60', SURF_ID='INERT'/ 
&OBST ID='Obstruction1', XB=-0.055,1.495,1.42,1.495,2.6,2.6, COLOR='GRAY 60', SURF_ID='INERT'/ 
&OBST ID='Obstruction1', XB=-0.055,1.4965,1.495,1.495,2.55,2.6, COLOR='GRAY 60', SURF_ID='INERT'/ 
&OBST ID='Obstruction1', XB=0.02,1.42,1.345,1.42,2.65,2.65, COLOR='GRAY 60', SURF_ID='INERT'/ 
&OBST ID='Obstruction1', XB=0.02,1.42,1.42,1.42,2.6,2.65, COLOR='GRAY 60', SURF_ID='INERT'/ 
&OBST ID='Obstruction1', XB=0.095,1.345,1.27,1.345,2.7,2.7, COLOR='GRAY 60', SURF_ID='INERT'/ 
&OBST ID='Obstruction1', XB=0.095,1.345,1.345,1.345,2.65,2.7, COLOR='GRAY 60', SURF_ID='INERT'/ 
&OBST ID='Obstruction1', XB=0.17,1.27,1.195,1.27,2.75,2.75, COLOR='GRAY 60', SURF_ID='INERT'/ 
&OBST ID='Obstruction1', XB=0.17,1.27,1.27,1.27,2.7,2.75, COLOR='GRAY 60', SURF_ID='INERT'/ 
&OBST ID='Obstruction1', XB=0.245,1.195,1.12,1.195,2.8,2.8, COLOR='GRAY 60', SURF_ID='INERT'/ 
&OBST ID='Obstruction1', XB=0.245,1.195,1.195,1.195,2.75,2.8, COLOR='GRAY 60', SURF_ID='INERT'/ 
&OBST ID='Obstruction1', XB=0.32,1.12,1.045,1.12,2.85,2.85, COLOR='GRAY 60', SURF_ID='INERT'/ 
&OBST ID='Obstruction1', XB=0.32,1.12,1.12,1.12,2.8,2.85, COLOR='GRAY 60', SURF_ID='INERT'/ 
&OBST ID='Obstruction1', XB=0.395,1.045,0.97,1.045,2.9,2.9, COLOR='GRAY 60', SURF_ID='INERT'/ 
&OBST ID='Obstruction1', XB=0.395,1.045,1.045,1.045,2.85,2.9, COLOR='GRAY 60', SURF_ID='INERT'/ 
&OBST ID='Obstruction1', XB=0.47,0.97,0.895,0.97,2.95,2.95, COLOR='GRAY 60', SURF_ID='INERT'/ 
&OBST ID='Obstruction1', XB=0.47,0.97,0.97,0.97,2.9,2.95, COLOR='GRAY 60', SURF_ID='INERT'/ 
&OBST ID='Obstruction1', XB=0.545,0.895,0.82,0.895,3.0,3.0, COLOR='GRAY 60', SURF_ID='INERT'/ 
&OBST ID='Obstruction1', XB=0.545,0.895,0.895,0.895,2.95,3.0, COLOR='GRAY 60', SURF_ID='INERT'/ 
&OBST ID='Obstruction1', XB=0.62,0.82,0.82,0.82,3.0,3.05, COLOR='GRAY 60', SURF_ID='INERT'/ 
&OBST ID='Obstruction #1', XB=1.645,1.645,-0.23,1.645,2.45,2.5, COLOR='GRAY 60', SURF_ID='INERT'/ 
&OBST ID='Obstruction #1', XB=1.57,1.645,-0.23,1.645,2.5,2.5, COLOR='GRAY 60', SURF_ID='INERT'/ 
&OBST ID='Obstruction #1', XB=1.57,1.57,-0.155,1.57,2.5,2.55, COLOR='GRAY 60', SURF_ID='INERT'/ 
&OBST ID='Obstruction #1', XB=1.495,1.57,-0.155,1.57,2.55,2.55, COLOR='GRAY 60', SURF_ID='INERT'/ 
&OBST ID='Obstruction #1', XB=1.495,1.495,-0.08,1.495,2.55,2.6, COLOR='GRAY 60', SURF_ID='INERT'/ 
&OBST ID='Obstruction #1', XB=1.42,1.495,-0.08,1.495,2.6,2.6, COLOR='GRAY 60', SURF_ID='INERT'/ 
&OBST ID='Obstruction #1', XB=1.42,1.42,-5.0E-3,1.42,2.6,2.65, COLOR='GRAY 60', SURF_ID='INERT'/ 
&OBST ID='Obstruction #1', XB=1.345,1.42,-5.0E-3,1.42,2.65,2.65, COLOR='GRAY 60', SURF_ID='INERT'/ 
&OBST ID='Obstruction #1', XB=1.345,1.345,0.07,1.345,2.65,2.7, COLOR='GRAY 60', SURF_ID='INERT'/ 
&OBST ID='Obstruction #1', XB=1.27,1.345,0.07,1.345,2.7,2.7, COLOR='GRAY 60', SURF_ID='INERT'/ 
&OBST ID='Obstruction #1', XB=1.27,1.27,0.145,1.27,2.7,2.75, COLOR='GRAY 60', SURF_ID='INERT'/ 
&OBST ID='Obstruction #1', XB=1.195,1.27,0.145,1.27,2.75,2.75, COLOR='GRAY 60', SURF_ID='INERT'/ 
&OBST ID='Obstruction #1', XB=1.195,1.195,0.22,1.195,2.75,2.8, COLOR='GRAY 60', SURF_ID='INERT'/ 
&OBST ID='Obstruction #1', XB=1.12,1.195,0.22,1.195,2.8,2.8, COLOR='GRAY 60', SURF_ID='INERT'/ 
&OBST ID='Obstruction #1', XB=1.12,1.12,0.295,1.12,2.8,2.85, COLOR='GRAY 60', SURF_ID='INERT'/ 
&OBST ID='Obstruction #1', XB=1.045,1.12,0.295,1.12,2.85,2.85, COLOR='GRAY 60', SURF_ID='INERT'/ 
&OBST ID='Obstruction #1', XB=1.045,1.045,0.37,1.045,2.85,2.9, COLOR='GRAY 60', SURF_ID='INERT'/ 
&OBST ID='Obstruction #1', XB=0.97,1.045,0.37,1.045,2.9,2.9, COLOR='GRAY 60', SURF_ID='INERT'/ 
&OBST ID='Obstruction #1', XB=0.97,0.97,0.445,0.97,2.9,2.95, COLOR='GRAY 60', SURF_ID='INERT'/ 
&OBST ID='Obstruction #1', XB=0.895,0.97,0.445,0.97,2.95,2.95, COLOR='GRAY 60', SURF_ID='INERT'/ 
&OBST ID='Obstruction #1', XB=0.895,0.895,0.52,0.895,2.95,3.0, COLOR='GRAY 60', SURF_ID='INERT'/ 
&OBST ID='Obstruction #1', XB=0.82,0.895,0.52,0.895,3.0,3.0, COLOR='GRAY 60', SURF_ID='INERT'/ 
&OBST ID='Obstruction #1', XB=0.82,0.82,0.595,0.82,3.0,3.05, COLOR='GRAY 60', SURF_ID='INERT'/ 
&OBST ID='Obstruction #1', XB=0.62,0.62,0.595,0.82,3.0,3.05, COLOR='GRAY 60', SURF_ID='INERT'/ 
&OBST ID='Obstruction1', XB=-0.28,1.72,-0.28,-0.28,0.2,2.4, COLOR='GRAY 80', SURF_ID='INERT'/ 

&OBST ID='Obstruction1', XB=-0.28,1.72,1.72,1.72,0.8,2.4, COLOR='GRAY 80', SURF_ID='INERT'/ 

&OBST ID='Obstruction #1', XB=-0.28,-0.28,-0.28,1.72,0.2,2.4, COLOR='GRAY 80', SURF_ID='INERT'/ 
&OBST ID='Mesh Vent: Mesh5 [ZMAX]01', XB=-0.28,1.72,-0.28,1.72,0.2,0.2, COLOR='GRAY 80', SURF_ID='INERT'/ 
&OBST ID='Obstruction #1', XB=1.72,1.72,-0.28,1.72,0.8,2.4, COLOR='GRAY 80', SURF_ID='INERT'/ 





&OBST ID='Obstruction #1', XB=1.72,1.72,-0.28,-0.255,0.75,0.775, COLOR='GRAY 80', SURF_ID='INERT'/ 
&OBST ID='Obstruction #1', XB=1.72,1.72,-0.28,-0.255,0.775,0.8, COLOR='GRAY 80', SURF_ID='INERT'/ 
&OBST ID='Obstruction #1', XB=1.72,1.72,-0.28,-0.255,0.8,0.825, COLOR='GRAY 80', SURF_ID='INERT'/ 
&OBST ID='Obstruction #1', XB=1.72,1.72,-0.23,-0.205,0.275,0.3, COLOR='GRAY 80', SURF_ID='INERT'/ 
&OBST ID='Obstruction #1', XB=1.72,1.72,-0.23,-0.205,0.225,0.25, COLOR='GRAY 80', SURF_ID='INERT'/ 
&OBST ID='Obstruction #1', XB=1.72,1.72,-0.23,-0.205,0.325,0.35, COLOR='GRAY 80', SURF_ID='INERT'/ 
&OBST ID='Obstruction #1', XB=1.72,1.72,-0.23,-0.205,0.375,0.4, COLOR='GRAY 80', SURF_ID='INERT'/ 
&OBST ID='Obstruction #1', XB=1.72,1.72,-0.23,-0.205,0.425,0.45, COLOR='GRAY 80', SURF_ID='INERT'/ 
&OBST ID='Obstruction #1', XB=1.72,1.72,-0.23,-0.205,0.475,0.5, COLOR='GRAY 80', SURF_ID='INERT'/ 
&OBST ID='Obstruction #1', XB=1.72,1.72,-0.23,-0.205,0.525,0.55, COLOR='GRAY 80', SURF_ID='INERT'/ 
&OBST ID='Obstruction #1', XB=1.72,1.72,-0.23,-0.205,0.575,0.6, COLOR='GRAY 80', SURF_ID='INERT'/ 
&OBST ID='Obstruction #1', XB=1.72,1.72,-0.23,-0.205,0.625,0.65, COLOR='GRAY 80', SURF_ID='INERT'/ 
&OBST ID='Obstruction #1', XB=1.72,1.72,-0.23,-0.205,0.675,0.7, COLOR='GRAY 80', SURF_ID='INERT'/ 
&OBST ID='Obstruction #1', XB=1.72,1.72,-0.23,-0.205,0.725,0.75, COLOR='GRAY 80', SURF_ID='INERT'/ 
&OBST ID='Obstruction #1', XB=1.72,1.72,-0.23,-0.205,0.775,0.8, COLOR='GRAY 80', SURF_ID='INERT'/ 
&OBST ID='Obstruction #1', XB=1.72,1.72,-0.18,-0.155,0.275,0.3, COLOR='GRAY 80', SURF_ID='INERT'/ 
&OBST ID='Obstruction #1', XB=1.72,1.72,-0.18,-0.155,0.225,0.25, COLOR='GRAY 80', SURF_ID='INERT'/ 
&OBST ID='Obstruction #1', XB=1.72,1.72,-0.18,-0.155,0.325,0.35, COLOR='GRAY 80', SURF_ID='INERT'/ 
&OBST ID='Obstruction #1', XB=1.72,1.72,-0.18,-0.155,0.375,0.4, COLOR='GRAY 80', SURF_ID='INERT'/ 
&OBST ID='Obstruction #1', XB=1.72,1.72,-0.18,-0.155,0.425,0.45, COLOR='GRAY 80', SURF_ID='INERT'/ 
&OBST ID='Obstruction #1', XB=1.72,1.72,-0.18,-0.155,0.475,0.5, COLOR='GRAY 80', SURF_ID='INERT'/ 
&OBST ID='Obstruction #1', XB=1.72,1.72,-0.18,-0.155,0.525,0.55, COLOR='GRAY 80', SURF_ID='INERT'/ 
&OBST ID='Obstruction #1', XB=1.72,1.72,-0.18,-0.155,0.575,0.6, COLOR='GRAY 80', SURF_ID='INERT'/ 
&OBST ID='Obstruction #1', XB=1.72,1.72,-0.18,-0.155,0.625,0.65, COLOR='GRAY 80', SURF_ID='INERT'/ 
&OBST ID='Obstruction #1', XB=1.72,1.72,-0.18,-0.155,0.675,0.7, COLOR='GRAY 80', SURF_ID='INERT'/ 
&OBST ID='Obstruction #1', XB=1.72,1.72,-0.18,-0.155,0.725,0.75, COLOR='GRAY 80', SURF_ID='INERT'/ 
&OBST ID='Obstruction #1', XB=1.72,1.72,-0.18,-0.155,0.775,0.8, COLOR='GRAY 80', SURF_ID='INERT'/ 
&OBST ID='Obstruction #1', XB=1.72,1.72,-0.13,-0.105,0.275,0.3, COLOR='GRAY 80', SURF_ID='INERT'/ 
&OBST ID='Obstruction #1', XB=1.72,1.72,-0.13,-0.105,0.225,0.25, COLOR='GRAY 80', SURF_ID='INERT'/ 
&OBST ID='Obstruction #1', XB=1.72,1.72,-0.13,-0.105,0.325,0.35, COLOR='GRAY 80', SURF_ID='INERT'/ 
&OBST ID='Obstruction #1', XB=1.72,1.72,-0.13,-0.105,0.375,0.4, COLOR='GRAY 80', SURF_ID='INERT'/ 
&OBST ID='Obstruction #1', XB=1.72,1.72,-0.13,-0.105,0.425,0.45, COLOR='GRAY 80', SURF_ID='INERT'/ 
&OBST ID='Obstruction #1', XB=1.72,1.72,-0.13,-0.105,0.475,0.5, COLOR='GRAY 80', SURF_ID='INERT'/ 
&OBST ID='Obstruction #1', XB=1.72,1.72,-0.13,-0.105,0.525,0.55, COLOR='GRAY 80', SURF_ID='INERT'/ 
&OBST ID='Obstruction #1', XB=1.72,1.72,-0.13,-0.105,0.575,0.6, COLOR='GRAY 80', SURF_ID='INERT'/ 
&OBST ID='Obstruction #1', XB=1.72,1.72,-0.13,-0.105,0.625,0.65, COLOR='GRAY 80', SURF_ID='INERT'/ 
&OBST ID='Obstruction #1', XB=1.72,1.72,-0.13,-0.105,0.675,0.7, COLOR='GRAY 80', SURF_ID='INERT'/ 
&OBST ID='Obstruction #1', XB=1.72,1.72,-0.13,-0.105,0.725,0.75, COLOR='GRAY 80', SURF_ID='INERT'/ 
&OBST ID='Obstruction #1', XB=1.72,1.72,-0.13,-0.105,0.775,0.8, COLOR='GRAY 80', SURF_ID='INERT'/ 
&OBST ID='Obstruction #1', XB=1.72,1.72,-0.08,-0.055,0.275,0.3, COLOR='GRAY 80', SURF_ID='INERT'/ 
&OBST ID='Obstruction #1', XB=1.72,1.72,-0.08,-0.055,0.225,0.25, COLOR='GRAY 80', SURF_ID='INERT'/ 
&OBST ID='Obstruction #1', XB=1.72,1.72,-0.08,-0.055,0.325,0.35, COLOR='GRAY 80', SURF_ID='INERT'/ 
&OBST ID='Obstruction #1', XB=1.72,1.72,-0.08,-0.055,0.375,0.4, COLOR='GRAY 80', SURF_ID='INERT'/ 
&OBST ID='Obstruction #1', XB=1.72,1.72,-0.08,-0.055,0.425,0.45, COLOR='GRAY 80', SURF_ID='INERT'/ 
&OBST ID='Obstruction #1', XB=1.72,1.72,-0.08,-0.055,0.475,0.5, COLOR='GRAY 80', SURF_ID='INERT'/ 
&OBST ID='Obstruction #1', XB=1.72,1.72,-0.08,-0.055,0.525,0.55, COLOR='GRAY 80', SURF_ID='INERT'/ 
&OBST ID='Obstruction #1', XB=1.72,1.72,-0.08,-0.055,0.575,0.6, COLOR='GRAY 80', SURF_ID='INERT'/ 
&OBST ID='Obstruction #1', XB=1.72,1.72,-0.08,-0.055,0.625,0.65, COLOR='GRAY 80', SURF_ID='INERT'/ 
&OBST ID='Obstruction #1', XB=1.72,1.72,-0.08,-0.055,0.675,0.7, COLOR='GRAY 80', SURF_ID='INERT'/ 
&OBST ID='Obstruction #1', XB=1.72,1.72,-0.08,-0.055,0.725,0.75, COLOR='GRAY 80', SURF_ID='INERT'/ 
&OBST ID='Obstruction #1', XB=1.72,1.72,-0.08,-0.055,0.775,0.8, COLOR='GRAY 80', SURF_ID='INERT'/ 
&OBST ID='Obstruction #1', XB=1.72,1.72,-0.03,-5.0E-3,0.275,0.3, COLOR='GRAY 80', SURF_ID='INERT'/ 
&OBST ID='Obstruction #1', XB=1.72,1.72,-0.03,-5.0E-3,0.225,0.25, COLOR='GRAY 80', SURF_ID='INERT'/ 
&OBST ID='Obstruction #1', XB=1.72,1.72,-0.03,-5.0E-3,0.325,0.35, COLOR='GRAY 80', SURF_ID='INERT'/ 
&OBST ID='Obstruction #1', XB=1.72,1.72,-0.03,-5.0E-3,0.375,0.4, COLOR='GRAY 80', SURF_ID='INERT'/ 
&OBST ID='Obstruction #1', XB=1.72,1.72,-0.03,-5.0E-3,0.425,0.45, COLOR='GRAY 80', SURF_ID='INERT'/ 
&OBST ID='Obstruction #1', XB=1.72,1.72,-0.03,-5.0E-3,0.475,0.5, COLOR='GRAY 80', SURF_ID='INERT'/ 
&OBST ID='Obstruction #1', XB=1.72,1.72,-0.03,-5.0E-3,0.525,0.55, COLOR='GRAY 80', SURF_ID='INERT'/ 
&OBST ID='Obstruction #1', XB=1.72,1.72,-0.03,-5.0E-3,0.575,0.6, COLOR='GRAY 80', SURF_ID='INERT'/ 
&OBST ID='Obstruction #1', XB=1.72,1.72,-0.03,-5.0E-3,0.625,0.65, COLOR='GRAY 80', SURF_ID='INERT'/ 
&OBST ID='Obstruction #1', XB=1.72,1.72,-0.03,-5.0E-3,0.675,0.7, COLOR='GRAY 80', SURF_ID='INERT'/ 
&OBST ID='Obstruction #1', XB=1.72,1.72,-0.03,-5.0E-3,0.725,0.75, COLOR='GRAY 80', SURF_ID='INERT'/ 
&OBST ID='Obstruction #1', XB=1.72,1.72,-0.03,-5.0E-3,0.775,0.8, COLOR='GRAY 80', SURF_ID='INERT'/ 
&OBST ID='Obstruction #1', XB=1.72,1.72,0.02,0.045,0.275,0.3, COLOR='GRAY 80', SURF_ID='INERT'/ 
&OBST ID='Obstruction #1', XB=1.72,1.72,0.02,0.045,0.225,0.25, COLOR='GRAY 80', SURF_ID='INERT'/ 
&OBST ID='Obstruction #1', XB=1.72,1.72,0.02,0.045,0.325,0.35, COLOR='GRAY 80', SURF_ID='INERT'/ 
&OBST ID='Obstruction #1', XB=1.72,1.72,0.02,0.045,0.375,0.4, COLOR='GRAY 80', SURF_ID='INERT'/ 
&OBST ID='Obstruction #1', XB=1.72,1.72,0.02,0.045,0.425,0.45, COLOR='GRAY 80', SURF_ID='INERT'/ 
&OBST ID='Obstruction #1', XB=1.72,1.72,0.02,0.045,0.475,0.5, COLOR='GRAY 80', SURF_ID='INERT'/ 
&OBST ID='Obstruction #1', XB=1.72,1.72,0.02,0.045,0.525,0.55, COLOR='GRAY 80', SURF_ID='INERT'/ 
&OBST ID='Obstruction #1', XB=1.72,1.72,0.02,0.045,0.575,0.6, COLOR='GRAY 80', SURF_ID='INERT'/ 
&OBST ID='Obstruction #1', XB=1.72,1.72,0.02,0.045,0.625,0.65, COLOR='GRAY 80', SURF_ID='INERT'/ 
&OBST ID='Obstruction #1', XB=1.72,1.72,0.02,0.045,0.675,0.7, COLOR='GRAY 80', SURF_ID='INERT'/ 
&OBST ID='Obstruction #1', XB=1.72,1.72,0.02,0.045,0.725,0.75, COLOR='GRAY 80', SURF_ID='INERT'/ 
&OBST ID='Obstruction #1', XB=1.72,1.72,0.02,0.045,0.775,0.8, COLOR='GRAY 80', SURF_ID='INERT'/ 
&OBST ID='Obstruction #1', XB=1.72,1.72,0.07,0.095,0.275,0.3, COLOR='GRAY 80', SURF_ID='INERT'/ 
&OBST ID='Obstruction #1', XB=1.72,1.72,0.07,0.095,0.225,0.25, COLOR='GRAY 80', SURF_ID='INERT'/ 
&OBST ID='Obstruction #1', XB=1.72,1.72,0.07,0.095,0.325,0.35, COLOR='GRAY 80', SURF_ID='INERT'/ 
&OBST ID='Obstruction #1', XB=1.72,1.72,0.07,0.095,0.375,0.4, COLOR='GRAY 80', SURF_ID='INERT'/ 
&OBST ID='Obstruction #1', XB=1.72,1.72,0.07,0.095,0.425,0.45, COLOR='GRAY 80', SURF_ID='INERT'/ 
&OBST ID='Obstruction #1', XB=1.72,1.72,0.07,0.095,0.475,0.5, COLOR='GRAY 80', SURF_ID='INERT'/ 
&OBST ID='Obstruction #1', XB=1.72,1.72,0.07,0.095,0.525,0.55, COLOR='GRAY 80', SURF_ID='INERT'/ 
&OBST ID='Obstruction #1', XB=1.72,1.72,0.07,0.095,0.575,0.6, COLOR='GRAY 80', SURF_ID='INERT'/ 
&OBST ID='Obstruction #1', XB=1.72,1.72,0.07,0.095,0.625,0.65, COLOR='GRAY 80', SURF_ID='INERT'/ 
&OBST ID='Obstruction #1', XB=1.72,1.72,0.07,0.095,0.675,0.7, COLOR='GRAY 80', SURF_ID='INERT'/ 
&OBST ID='Obstruction #1', XB=1.72,1.72,0.07,0.095,0.725,0.75, COLOR='GRAY 80', SURF_ID='INERT'/ 
&OBST ID='Obstruction #1', XB=1.72,1.72,0.07,0.095,0.775,0.8, COLOR='GRAY 80', SURF_ID='INERT'/ 
&OBST ID='Obstruction #1', XB=1.72,1.72,0.12,0.145,0.275,0.3, COLOR='GRAY 80', SURF_ID='INERT'/ 
&OBST ID='Obstruction #1', XB=1.72,1.72,0.12,0.145,0.225,0.25, COLOR='GRAY 80', SURF_ID='INERT'/ 
&OBST ID='Obstruction #1', XB=1.72,1.72,0.12,0.145,0.325,0.35, COLOR='GRAY 80', SURF_ID='INERT'/ 
&OBST ID='Obstruction #1', XB=1.72,1.72,0.12,0.145,0.375,0.4, COLOR='GRAY 80', SURF_ID='INERT'/ 
&OBST ID='Obstruction #1', XB=1.72,1.72,0.12,0.145,0.425,0.45, COLOR='GRAY 80', SURF_ID='INERT'/ 
&OBST ID='Obstruction #1', XB=1.72,1.72,0.12,0.145,0.475,0.5, COLOR='GRAY 80', SURF_ID='INERT'/ 
&OBST ID='Obstruction #1', XB=1.72,1.72,0.12,0.145,0.525,0.55, COLOR='GRAY 80', SURF_ID='INERT'/ 
&OBST ID='Obstruction #1', XB=1.72,1.72,0.12,0.145,0.575,0.6, COLOR='GRAY 80', SURF_ID='INERT'/ 
&OBST ID='Obstruction #1', XB=1.72,1.72,0.12,0.145,0.625,0.65, COLOR='GRAY 80', SURF_ID='INERT'/ 
&OBST ID='Obstruction #1', XB=1.72,1.72,0.12,0.145,0.675,0.7, COLOR='GRAY 80', SURF_ID='INERT'/ 
&OBST ID='Obstruction #1', XB=1.72,1.72,0.12,0.145,0.725,0.75, COLOR='GRAY 80', SURF_ID='INERT'/ 
&OBST ID='Obstruction #1', XB=1.72,1.72,0.12,0.145,0.775,0.8, COLOR='GRAY 80', SURF_ID='INERT'/ 
&OBST ID='Obstruction #1', XB=1.72,1.72,0.17,0.195,0.275,0.3, COLOR='GRAY 80', SURF_ID='INERT'/ 
&OBST ID='Obstruction #1', XB=1.72,1.72,0.17,0.195,0.225,0.25, COLOR='GRAY 80', SURF_ID='INERT'/ 
&OBST ID='Obstruction #1', XB=1.72,1.72,0.17,0.195,0.325,0.35, COLOR='GRAY 80', SURF_ID='INERT'/ 
&OBST ID='Obstruction #1', XB=1.72,1.72,0.17,0.195,0.375,0.4, COLOR='GRAY 80', SURF_ID='INERT'/ 
&OBST ID='Obstruction #1', XB=1.72,1.72,0.17,0.195,0.425,0.45, COLOR='GRAY 80', SURF_ID='INERT'/ 
&OBST ID='Obstruction #1', XB=1.72,1.72,0.17,0.195,0.475,0.5, COLOR='GRAY 80', SURF_ID='INERT'/ 
&OBST ID='Obstruction #1', XB=1.72,1.72,0.17,0.195,0.525,0.55, COLOR='GRAY 80', SURF_ID='INERT'/ 
&OBST ID='Obstruction #1', XB=1.72,1.72,0.17,0.195,0.575,0.6, COLOR='GRAY 80', SURF_ID='INERT'/ 
&OBST ID='Obstruction #1', XB=1.72,1.72,0.17,0.195,0.625,0.65, COLOR='GRAY 80', SURF_ID='INERT'/ 
&OBST ID='Obstruction #1', XB=1.72,1.72,0.17,0.195,0.675,0.7, COLOR='GRAY 80', SURF_ID='INERT'/ 
&OBST ID='Obstruction #1', XB=1.72,1.72,0.17,0.195,0.725,0.75, COLOR='GRAY 80', SURF_ID='INERT'/ 
&OBST ID='Obstruction #1', XB=1.72,1.72,0.17,0.195,0.775,0.8, COLOR='GRAY 80', SURF_ID='INERT'/ 
&OBST ID='Obstruction #1', XB=1.72,1.72,0.22,0.245,0.275,0.3, COLOR='GRAY 80', SURF_ID='INERT'/ 
&OBST ID='Obstruction #1', XB=1.72,1.72,0.22,0.245,0.225,0.25, COLOR='GRAY 80', SURF_ID='INERT'/ 
&OBST ID='Obstruction #1', XB=1.72,1.72,0.22,0.245,0.325,0.35, COLOR='GRAY 80', SURF_ID='INERT'/ 
&OBST ID='Obstruction #1', XB=1.72,1.72,0.22,0.245,0.375,0.4, COLOR='GRAY 80', SURF_ID='INERT'/ 
&OBST ID='Obstruction #1', XB=1.72,1.72,0.22,0.245,0.425,0.45, COLOR='GRAY 80', SURF_ID='INERT'/ 
&OBST ID='Obstruction #1', XB=1.72,1.72,0.22,0.245,0.475,0.5, COLOR='GRAY 80', SURF_ID='INERT'/ 
&OBST ID='Obstruction #1', XB=1.72,1.72,0.22,0.245,0.525,0.55, COLOR='GRAY 80', SURF_ID='INERT'/ 
&OBST ID='Obstruction #1', XB=1.72,1.72,0.22,0.245,0.575,0.6, COLOR='GRAY 80', SURF_ID='INERT'/ 
&OBST ID='Obstruction #1', XB=1.72,1.72,0.22,0.245,0.625,0.65, COLOR='GRAY 80', SURF_ID='INERT'/ 
&OBST ID='Obstruction #1', XB=1.72,1.72,0.22,0.245,0.675,0.7, COLOR='GRAY 80', SURF_ID='INERT'/ 
&OBST ID='Obstruction #1', XB=1.72,1.72,0.22,0.245,0.725,0.75, COLOR='GRAY 80', SURF_ID='INERT'/ 
&OBST ID='Obstruction #1', XB=1.72,1.72,0.22,0.245,0.775,0.8, COLOR='GRAY 80', SURF_ID='INERT'/ 
&OBST ID='Obstruction #1', XB=1.72,1.72,0.27,0.295,0.275,0.3, COLOR='GRAY 80', SURF_ID='INERT'/ 
&OBST ID='Obstruction #1', XB=1.72,1.72,0.27,0.295,0.225,0.25, COLOR='GRAY 80', SURF_ID='INERT'/ 
&OBST ID='Obstruction #1', XB=1.72,1.72,0.27,0.295,0.325,0.35, COLOR='GRAY 80', SURF_ID='INERT'/ 
&OBST ID='Obstruction #1', XB=1.72,1.72,0.27,0.295,0.375,0.4, COLOR='GRAY 80', SURF_ID='INERT'/ 
&OBST ID='Obstruction #1', XB=1.72,1.72,0.27,0.295,0.425,0.45, COLOR='GRAY 80', SURF_ID='INERT'/ 
&OBST ID='Obstruction #1', XB=1.72,1.72,0.27,0.295,0.475,0.5, COLOR='GRAY 80', SURF_ID='INERT'/ 
&OBST ID='Obstruction #1', XB=1.72,1.72,0.27,0.295,0.525,0.55, COLOR='GRAY 80', SURF_ID='INERT'/ 
&OBST ID='Obstruction #1', XB=1.72,1.72,0.27,0.295,0.575,0.6, COLOR='GRAY 80', SURF_ID='INERT'/ 
&OBST ID='Obstruction #1', XB=1.72,1.72,0.27,0.295,0.625,0.65, COLOR='GRAY 80', SURF_ID='INERT'/ 
&OBST ID='Obstruction #1', XB=1.72,1.72,0.27,0.295,0.675,0.7, COLOR='GRAY 80', SURF_ID='INERT'/ 
&OBST ID='Obstruction #1', XB=1.72,1.72,0.27,0.295,0.725,0.75, COLOR='GRAY 80', SURF_ID='INERT'/ 
&OBST ID='Obstruction #1', XB=1.72,1.72,0.27,0.295,0.775,0.8, COLOR='GRAY 80', SURF_ID='INERT'/ 
&OBST ID='Obstruction #1', XB=1.72,1.72,0.32,0.345,0.275,0.3, COLOR='GRAY 80', SURF_ID='INERT'/ 
&OBST ID='Obstruction #1', XB=1.72,1.72,0.32,0.345,0.225,0.25, COLOR='GRAY 80', SURF_ID='INERT'/ 
&OBST ID='Obstruction #1', XB=1.72,1.72,0.32,0.345,0.325,0.35, COLOR='GRAY 80', SURF_ID='INERT'/ 
&OBST ID='Obstruction #1', XB=1.72,1.72,0.32,0.345,0.375,0.4, COLOR='GRAY 80', SURF_ID='INERT'/ 